
#======================================================================
# CRYSTAL DATA
#----------------------------------------------------------------------
data_VESTA_phase_1

_chemical_name_common                  'O2 Zr'
_cell_length_a                         7.290000
_cell_length_b                         7.290000
_cell_length_c                         8.816138
_cell_angle_alpha                      90.000000
_cell_angle_beta                       90.000000
_cell_angle_gamma                      60.000000
_cell_volume                           405.755183
_space_group_name_H-M_alt              'P 1'
_space_group_IT_number                 1

loop_
_space_group_symop_operation_xyz
   'x, y, z'

loop_
   _atom_site_label
   _atom_site_occupancy
   _atom_site_fract_x
   _atom_site_fract_y
   _atom_site_fract_z
   _atom_site_adp_type
   _atom_site_U_iso_or_equiv
   _atom_site_type_symbol
   Zr1        1.0     0.471928     0.315881     0.187500    Uiso  ? Zr
   Zr2        1.0     0.965641     0.315881     0.187500    Uiso  ? Zr
   Zr3        1.0    -0.186357     0.645024     0.520833    Uiso  ? Zr
   Zr4        1.0     0.307357     0.645024     0.520833    Uiso  ? Zr
   Zr5        1.0    -0.350929     0.974166     0.854167    Uiso  ? Zr
   Zr6        1.0     0.142785     0.974166     0.854167    Uiso  ? Zr
   Zr7        1.0    -0.186357     1.138737     0.520833    Uiso  ? Zr
   Zr8        1.0     0.307356     1.138737     0.520833    Uiso  ? Zr
   Zr9        1.0     0.142785     0.480452     0.854167    Uiso  ? Zr
   Zr10       1.0     0.636499     0.480452     0.854167    Uiso  ? Zr
   Zr11       1.0    -0.021786     0.809595     0.187500    Uiso  ? Zr
   Zr12       1.0     0.471928     0.809595     0.187500    Uiso  ? Zr
   O1         1.0     0.471928     0.315881     0.437500    Uiso  ? O
   O2         1.0     0.965641     0.315881     0.437500    Uiso  ? O
   O3         1.0     0.471928     0.315881     0.937500    Uiso  ? O
   O4         1.0     0.965641     0.315881     0.937500    Uiso  ? O
   O5         1.0    -0.186357     0.645024     0.270833    Uiso  ? O
   O6         1.0     0.307357     0.645024     0.270833    Uiso  ? O
   O7         1.0     0.142785     0.480452     0.104167    Uiso  ? O
   O8         1.0     0.636499     0.480452     0.104167    Uiso  ? O
   O9         1.0     0.142785     0.480452     0.604167    Uiso  ? O
   O10        1.0     0.636499     0.480452     0.604167    Uiso  ? O
   O11        1.0    -0.186357     0.645024     0.770833    Uiso  ? O
   O12        1.0     0.307357     0.645024     0.770833    Uiso  ? O
   O13        1.0    -0.350929     0.974166     0.604167    Uiso  ? O
   O14        1.0     0.142785     0.974166     0.604167    Uiso  ? O
   O15        1.0    -0.021786     0.809595     0.437500    Uiso  ? O
   O16        1.0     0.471928     0.809595     0.437500    Uiso  ? O
   O17        1.0    -0.186357     1.138737     0.270833    Uiso  ? O
   O18        1.0     0.307356     1.138737     0.270833    Uiso  ? O
   O19        1.0    -0.186357     1.138737     0.770833    Uiso  ? O
   O20        1.0     0.307356     1.138737     0.770833    Uiso  ? O
   O21        1.0    -0.021786     0.809595     0.937500    Uiso  ? O
   O22        1.0     0.471928     0.809595     0.937500    Uiso  ? O
   O23        1.0    -0.350929     0.974166     0.104167    Uiso  ? O
   O24        1.0     0.142785     0.974166     0.104167    Uiso  ? O
