
#======================================================================
# CRYSTAL DATA
#----------------------------------------------------------------------
data_VESTA_phase_1

_chemical_name_common                  'O2 Zr'
_cell_length_a                         7.290000
_cell_length_b                         7.290000
_cell_length_c                         25.000000
_cell_angle_alpha                      90.000000
_cell_angle_beta                       90.000000
_cell_angle_gamma                      60.000000
_cell_volume                           1150.603504
_space_group_name_H-M_alt              'P 1'
_space_group_IT_number                 1

loop_
_space_group_symop_operation_xyz
   'x, y, z'

loop_
   _atom_site_label
   _atom_site_occupancy
   _atom_site_fract_x
   _atom_site_fract_y
   _atom_site_fract_z
   _atom_site_adp_type
   _atom_site_U_iso_or_equiv
   _atom_site_type_symbol
   Zr1        1.0     0.164572     0.177143     0.259536    Uiso  ? Zr
   Zr2        1.0     0.658285     0.177143     0.259536    Uiso  ? Zr
   Zr3        1.0     0.506287     0.506286     0.377084    Uiso  ? Zr
   Zr4        1.0     0.000000     0.506286     0.377084    Uiso  ? Zr
   Zr5        1.0     0.341715     0.835429     0.494633    Uiso  ? Zr
   Zr6        1.0    -0.164571     0.835429     0.494633    Uiso  ? Zr
   Zr7        1.0     0.506286     0.000000     0.377084    Uiso  ? Zr
   Zr8        1.0     0.000000     0.000000     0.377084    Uiso  ? Zr
   Zr9        1.0    -0.164571     0.341715     0.494633    Uiso  ? Zr
   Zr10       1.0     0.329143     0.341715     0.494633    Uiso  ? Zr
   Zr11       1.0     0.670858     0.670857     0.259536    Uiso  ? Zr
   Zr12       1.0     0.164571     0.670857     0.259536    Uiso  ? Zr
   O1         1.0     0.164572     0.177143     0.347697    Uiso  ? O
   O2         1.0     0.658285     0.177143     0.347697    Uiso  ? O
   O3         1.0     0.164572     0.177143     0.524020    Uiso  ? O
   O4         1.0     0.658285     0.177143     0.524020    Uiso  ? O
   O5         1.0     0.506287     0.506286     0.288923    Uiso  ? O
   O6         1.0     0.000000     0.506286     0.288923    Uiso  ? O
   O7         1.0    -0.164571     0.341715     0.230149    Uiso  ? O
   O8         1.0     0.329143     0.341715     0.230149    Uiso  ? O
   O9         1.0    -0.164571     0.341715     0.406471    Uiso  ? O
   O10        1.0     0.329143     0.341715     0.406471    Uiso  ? O
   O11        1.0     0.506287     0.506286     0.465246    Uiso  ? O
   O12        1.0     0.000000     0.506286     0.465246    Uiso  ? O
   O13        1.0     0.341715     0.835429     0.406471    Uiso  ? O
   O14        1.0    -0.164571     0.835429     0.406471    Uiso  ? O
   O15        1.0     0.670858     0.670857     0.347697    Uiso  ? O
   O16        1.0     0.164571     0.670857     0.347697    Uiso  ? O
   O17        1.0     0.506286     0.000000     0.288923    Uiso  ? O
   O18        1.0     0.000000     0.000000     0.288923    Uiso  ? O
   O19        1.0     0.506286     0.000000     0.465246    Uiso  ? O
   O20        1.0     0.000000     0.000000     0.465246    Uiso  ? O
   O21        1.0     0.670858     0.670857     0.524020    Uiso  ? O
   O22        1.0     0.164571     0.670857     0.524020    Uiso  ? O
   O23        1.0     0.341715     0.835429     0.230149    Uiso  ? O
   O24        1.0    -0.164571     0.835429     0.230149    Uiso  ? O
   Ni1        1.0     0.001578     0.005498     0.159349    Uiso  ? Ni
   Ni2        1.0     0.670856     0.336220     0.159349    Uiso  ? Ni
   Ni3        1.0     0.336217     0.005498     0.159349    Uiso  ? Ni
   Ni4        1.0     0.005495     0.336220     0.159349    Uiso  ? Ni
   Ni5        1.0     0.670856     0.005498     0.159349    Uiso  ? Ni
   Ni6        1.0     0.340134     0.336220     0.159349    Uiso  ? Ni
   Ni7        1.0     0.559309     0.559313     0.000000    Uiso  ? Ni
   Ni8        1.0    -0.106052     0.559313     0.000000    Uiso  ? Ni
   Ni9        1.0     0.228588     0.559313     0.000000    Uiso  ? Ni
   Ni10       1.0     0.113124     0.782405     0.079674    Uiso  ? Ni
   Ni11       1.0     0.447763     0.782405     0.079674    Uiso  ? Ni
   Ni12       1.0     0.782402     0.782405     0.079674    Uiso  ? Ni
   Ni13       1.0     0.559310     0.224673     0.000000    Uiso  ? Ni
   Ni14       1.0     0.224670     0.893951     0.000000    Uiso  ? Ni
   Ni15       1.0    -0.106051     0.224673     0.000000    Uiso  ? Ni
   Ni16       1.0     0.559309     0.893951     0.000000    Uiso  ? Ni
   Ni17       1.0     0.228588     0.224673     0.000000    Uiso  ? Ni
   Ni18       1.0    -0.106051     0.893951     0.000000    Uiso  ? Ni
   Ni19       1.0     0.447763     0.447766     0.079674    Uiso  ? Ni
   Ni20       1.0     0.113124     0.117044     0.079674    Uiso  ? Ni
   Ni21       1.0     0.782402     0.447766     0.079674    Uiso  ? Ni
   Ni22       1.0     0.447763     0.117044     0.079674    Uiso  ? Ni
   Ni23       1.0     0.117041     0.447766     0.079674    Uiso  ? Ni
   Ni24       1.0     0.782402     0.117044     0.079674    Uiso  ? Ni
   Ni25       1.0     0.336217     0.670859     0.159349    Uiso  ? Ni
   Ni26       1.0     0.670856     0.670859     0.159349    Uiso  ? Ni
   Ni27       1.0     0.005495     0.670859     0.159349    Uiso  ? Ni
