
#======================================================================
# CRYSTAL DATA
#----------------------------------------------------------------------
data_VESTA_phase_1

_chemical_name_common                  'O2 Zr'
_cell_length_a                         7.290000
_cell_length_b                         7.290000
_cell_length_c                         20.847443
_cell_angle_alpha                      90.000000
_cell_angle_beta                       90.000000
_cell_angle_gamma                      60.000000
_cell_volume                           959.485622
_space_group_name_H-M_alt              'P 1'
_space_group_IT_number                 1

loop_
_space_group_symop_operation_xyz
   'x, y, z'

loop_
   _atom_site_label
   _atom_site_occupancy
   _atom_site_fract_x
   _atom_site_fract_y
   _atom_site_fract_z
   _atom_site_adp_type
   _atom_site_U_iso_or_equiv
   _atom_site_type_symbol
   Zr1        1.0     0.162994     0.171646     0.359004    Uiso  ? Zr
   Zr2        1.0     0.656707     0.171646     0.359004    Uiso  ? Zr
   Zr3        1.0     0.504709     0.500788     0.499967    Uiso  ? Zr
   Zr4        1.0     0.998422     0.500788     0.499967    Uiso  ? Zr
   Zr5        1.0     0.340137     0.829931     0.640930    Uiso  ? Zr
   Zr6        1.0     0.833851     0.829931     0.640930    Uiso  ? Zr
   Zr7        1.0     0.504708     0.994502     0.499967    Uiso  ? Zr
   Zr8        1.0     0.998422     0.994502     0.499967    Uiso  ? Zr
   Zr9        1.0     0.833851     0.336217     0.640930    Uiso  ? Zr
   Zr10       1.0     0.327565     0.336217     0.640930    Uiso  ? Zr
   Zr11       1.0     0.669280     0.665360     0.359004    Uiso  ? Zr
   Zr12       1.0     0.162993     0.665360     0.359004    Uiso  ? Zr
   O1         1.0     0.162994     0.171646     0.464726    Uiso  ? O
   O2         1.0     0.656707     0.171646     0.464726    Uiso  ? O
   O3         1.0     0.162994     0.171646     0.676171    Uiso  ? O
   O4         1.0     0.656707     0.171646     0.676171    Uiso  ? O
   O5         1.0     0.504709     0.500788     0.394245    Uiso  ? O
   O6         1.0     0.998422     0.500788     0.394245    Uiso  ? O
   O7         1.0     0.833851     0.336217     0.323764    Uiso  ? O
   O8         1.0     0.327565     0.336217     0.323764    Uiso  ? O
   O9         1.0     0.833851     0.336217     0.535208    Uiso  ? O
   O10        1.0     0.327565     0.336217     0.535208    Uiso  ? O
   O11        1.0     0.504709     0.500788     0.605689    Uiso  ? O
   O12        1.0     0.998422     0.500788     0.605689    Uiso  ? O
   O13        1.0     0.340137     0.829931     0.535208    Uiso  ? O
   O14        1.0     0.833851     0.829931     0.535208    Uiso  ? O
   O15        1.0     0.669280     0.665360     0.464726    Uiso  ? O
   O16        1.0     0.162993     0.665360     0.464726    Uiso  ? O
   O17        1.0     0.504708     0.994502     0.394245    Uiso  ? O
   O18        1.0     0.998422     0.994502     0.394245    Uiso  ? O
   O19        1.0     0.504708     0.994502     0.605689    Uiso  ? O
   O20        1.0     0.998422     0.994502     0.605689    Uiso  ? O
   O21        1.0     0.669280     0.665360     0.676171    Uiso  ? O
   O22        1.0     0.162993     0.665360     0.676171    Uiso  ? O
   O23        1.0     0.340137     0.829931     0.323764    Uiso  ? O
   O24        1.0     0.833851     0.829931     0.323764    Uiso  ? O
   Ni1        1.0     0.000000     0.000000     0.238861    Uiso  ? Ni
   Ni2        1.0     0.669278     0.330722     0.238861    Uiso  ? Ni
   Ni3        1.0     0.334639     0.000000     0.238861    Uiso  ? Ni
   Ni4        1.0     0.003917     0.330722     0.238861    Uiso  ? Ni
   Ni5        1.0     0.669278     0.000000     0.238861    Uiso  ? Ni
   Ni6        1.0     0.338556     0.330722     0.238861    Uiso  ? Ni
   Ni7        1.0     0.557732     0.553815     0.047772    Uiso  ? Ni
   Ni8        1.0     0.892371     0.553815     0.047772    Uiso  ? Ni
   Ni9        1.0     0.227010     0.553815     0.047772    Uiso  ? Ni
   Ni10       1.0     0.111546     0.776907     0.143317    Uiso  ? Ni
   Ni11       1.0     0.446185     0.776907     0.143317    Uiso  ? Ni
   Ni12       1.0     0.780824     0.776907     0.143317    Uiso  ? Ni
   Ni13       1.0     0.557732     0.219176     0.047772    Uiso  ? Ni
   Ni14       1.0     0.223093     0.888454     0.047772    Uiso  ? Ni
   Ni15       1.0     0.892371     0.219176     0.047772    Uiso  ? Ni
   Ni16       1.0     0.557732     0.888454     0.047772    Uiso  ? Ni
   Ni17       1.0     0.227010     0.219176     0.047772    Uiso  ? Ni
   Ni18       1.0     0.892371     0.888454     0.047772    Uiso  ? Ni
   Ni19       1.0     0.446185     0.442268     0.143317    Uiso  ? Ni
   Ni20       1.0     0.111546     0.111546     0.143317    Uiso  ? Ni
   Ni21       1.0     0.780824     0.442268     0.143317    Uiso  ? Ni
   Ni22       1.0     0.446185     0.111546     0.143317    Uiso  ? Ni
   Ni23       1.0     0.115463     0.442268     0.143317    Uiso  ? Ni
   Ni24       1.0     0.780824     0.111546     0.143317    Uiso  ? Ni
   Ni25       1.0     0.334639     0.665361     0.238861    Uiso  ? Ni
   Ni26       1.0     0.669278     0.665361     0.238861    Uiso  ? Ni
   Ni27       1.0     0.003917     0.665361     0.238861    Uiso  ? Ni
   Ni28       1.0     0.442269     0.111547     0.952228    Uiso  ? Ni
   Ni29       1.0     0.111547     0.442269     0.952228    Uiso  ? Ni
   Ni30       1.0     0.776908     0.111547     0.952228    Uiso  ? Ni
   Ni31       1.0     0.446186     0.442269     0.952228    Uiso  ? Ni
   Ni32       1.0     0.111547     0.111547     0.952228    Uiso  ? Ni
   Ni33       1.0     0.780825     0.442269     0.952228    Uiso  ? Ni
   Ni34       1.0     0.000000     0.665362     0.761139    Uiso  ? Ni
   Ni35       1.0     0.334639     0.665362     0.761139    Uiso  ? Ni
   Ni36       1.0     0.669278     0.665362     0.761139    Uiso  ? Ni
   Ni37       1.0     0.553815     0.888454     0.856683    Uiso  ? Ni
   Ni38       1.0     0.888454     0.888454     0.856683    Uiso  ? Ni
   Ni39       1.0     0.223093     0.888454     0.856683    Uiso  ? Ni
   Ni40       1.0     0.000000     0.330723     0.761139    Uiso  ? Ni
   Ni41       1.0     0.665361     1.000001     0.761139    Uiso  ? Ni
   Ni42       1.0     0.334639     0.330723     0.761139    Uiso  ? Ni
   Ni43       1.0     0.000000     1.000001     0.761139    Uiso  ? Ni
   Ni44       1.0     0.669278     0.330723     0.761139    Uiso  ? Ni
   Ni45       1.0     0.334639     1.000001     0.761139    Uiso  ? Ni
   Ni46       1.0     0.888454     0.553815     0.856683    Uiso  ? Ni
   Ni47       1.0     0.553815     0.223094     0.856683    Uiso  ? Ni
   Ni48       1.0     0.223093     0.553815     0.856683    Uiso  ? Ni
   Ni49       1.0     0.888454     0.223094     0.856683    Uiso  ? Ni
   Ni50       1.0     0.557732     0.553815     0.856683    Uiso  ? Ni
   Ni51       1.0     0.223093     0.223094     0.856683    Uiso  ? Ni
   Ni52       1.0     0.776908     0.776908     0.952228    Uiso  ? Ni
   Ni53       1.0     0.111547     0.776908     0.952228    Uiso  ? Ni
   Ni54       1.0     0.446186     0.776908     0.952228    Uiso  ? Ni
